<?xml version="1.0" encoding="UTF-8"?>

<!-- generated on 2025-11-20 12:32:52 by Eclipse SUMO netconvert Version 1.24.0
<netconvertConfiguration xmlns:xsi="http://www.w3.org/2001/XMLSchema-instance" xsi:noNamespaceSchemaLocation="http://sumo.dlr.de/xsd/netconvertConfiguration.xsd">

    <input>
        <node-files value="crossroad.nod.xml"/>
        <edge-files value="crossroad.edg.xml"/>
        <connection-files value="crossroad.con.xml"/>
    </input>

    <output>
        <output-file value="crossroad.net.xml"/>
    </output>

</netconvertConfiguration>
-->

<net version="1.20" junctionCornerDetail="5" limitTurnSpeed="5.50" xmlns:xsi="http://www.w3.org/2001/XMLSchema-instance" xsi:noNamespaceSchemaLocation="http://sumo.dlr.de/xsd/net_file.xsd">

    <location netOffset="500.00,500.00" convBoundary="0.00,0.00,1000.00,1000.00" origBoundary="-500.00,-500.00,500.00,500.00" projParameter="!"/>

    <edge id=":E_0" function="internal">
        <lane id=":E_0_0" index="0" speed="3.65" length="4.67" shape="1000.00,498.40 1001.20,499.20 1001.60,500.00 1001.20,500.80 1000.00,501.60"/>
    </edge>
    <edge id=":J0_0" function="internal">
        <lane id=":J0_0_0" index="0" speed="6.51" length="9.03" shape="492.00,513.60 491.65,511.15 490.60,509.40 488.85,508.35 486.40,508.00"/>
    </edge>
    <edge id=":J0_1" function="internal">
        <lane id=":J0_1_0" index="0" speed="13.89" length="27.20" shape="495.20,513.60 495.20,486.40"/>
    </edge>
    <edge id=":J0_2" function="internal">
        <lane id=":J0_2_0" index="0" speed="10.36" length="12.07" shape="498.40,513.60 499.35,506.95 502.10,502.36"/>
    </edge>
    <edge id=":J0_12" function="internal">
        <lane id=":J0_12_0" index="0" speed="10.36" length="12.44" shape="502.10,502.36 502.20,502.20 506.95,499.35 513.60,498.40"/>
    </edge>
    <edge id=":J0_3" function="internal">
        <lane id=":J0_3_0" index="0" speed="6.51" length="9.03" shape="513.60,508.00 511.15,508.35 509.40,509.40 508.35,511.15 508.00,513.60"/>
    </edge>
    <edge id=":J0_4" function="internal">
        <lane id=":J0_4_0" index="0" speed="13.89" length="27.20" shape="513.60,504.80 486.40,504.80"/>
    </edge>
    <edge id=":J0_5" function="internal">
        <lane id=":J0_5_0" index="0" speed="10.36" length="12.07" shape="513.60,501.60 506.95,500.65 502.36,497.90"/>
    </edge>
    <edge id=":J0_13" function="internal">
        <lane id=":J0_13_0" index="0" speed="10.36" length="12.44" shape="502.36,497.90 502.20,497.80 499.35,493.05 498.40,486.40"/>
    </edge>
    <edge id=":J0_6" function="internal">
        <lane id=":J0_6_0" index="0" speed="6.51" length="9.03" shape="508.00,486.40 508.35,488.85 509.40,490.60 511.15,491.65 513.60,492.00"/>
    </edge>
    <edge id=":J0_7" function="internal">
        <lane id=":J0_7_0" index="0" speed="13.89" length="27.20" shape="504.80,486.40 504.80,513.60"/>
    </edge>
    <edge id=":J0_8" function="internal">
        <lane id=":J0_8_0" index="0" speed="10.36" length="12.07" shape="501.60,486.40 500.65,493.05 497.90,497.64"/>
    </edge>
    <edge id=":J0_14" function="internal">
        <lane id=":J0_14_0" index="0" speed="10.36" length="12.44" shape="497.90,497.64 497.80,497.80 493.05,500.65 486.40,501.60"/>
    </edge>
    <edge id=":J0_9" function="internal">
        <lane id=":J0_9_0" index="0" speed="6.51" length="9.03" shape="486.40,492.00 488.85,491.65 490.60,490.60 491.65,488.85 492.00,486.40"/>
    </edge>
    <edge id=":J0_10" function="internal">
        <lane id=":J0_10_0" index="0" speed="13.89" length="27.20" shape="486.40,495.20 513.60,495.20"/>
    </edge>
    <edge id=":J0_11" function="internal">
        <lane id=":J0_11_0" index="0" speed="10.36" length="12.07" shape="486.40,498.40 493.05,499.35 497.64,502.10"/>
    </edge>
    <edge id=":J0_15" function="internal">
        <lane id=":J0_15_0" index="0" speed="10.36" length="12.44" shape="497.64,502.10 497.80,502.20 500.65,506.95 501.60,513.60"/>
    </edge>
    <edge id=":N_0" function="internal">
        <lane id=":N_0_0" index="0" speed="3.65" length="4.67" shape="501.60,1000.00 500.80,1001.20 500.00,1001.60 499.20,1001.20 498.40,1000.00"/>
    </edge>
    <edge id=":S_0" function="internal">
        <lane id=":S_0_0" index="0" speed="3.65" length="4.67" shape="498.40,0.00 499.20,-1.20 500.00,-1.60 500.80,-1.20 501.60,0.00"/>
    </edge>
    <edge id=":W_0" function="internal">
        <lane id=":W_0_0" index="0" speed="3.65" length="4.67" shape="0.00,501.60 -1.20,500.80 -1.60,500.00 -1.20,499.20 0.00,498.40"/>
    </edge>

    <edge id="E_in" from="E" to="J0" priority="-1">
        <lane id="E_in_0" index="0" speed="13.89" length="486.40" shape="1000.00,508.00 513.60,508.00"/>
        <lane id="E_in_1" index="1" speed="13.89" length="486.40" shape="1000.00,504.80 513.60,504.80"/>
        <lane id="E_in_2" index="2" speed="13.89" length="486.40" shape="1000.00,501.60 513.60,501.60"/>
    </edge>
    <edge id="E_out" from="J0" to="E" priority="-1">
        <lane id="E_out_0" index="0" speed="13.89" length="486.40" shape="513.60,492.00 1000.00,492.00"/>
        <lane id="E_out_1" index="1" speed="13.89" length="486.40" shape="513.60,495.20 1000.00,495.20"/>
        <lane id="E_out_2" index="2" speed="13.89" length="486.40" shape="513.60,498.40 1000.00,498.40"/>
    </edge>
    <edge id="N_in" from="N" to="J0" priority="-1">
        <lane id="N_in_0" index="0" speed="13.89" length="486.40" shape="492.00,1000.00 492.00,513.60"/>
        <lane id="N_in_1" index="1" speed="13.89" length="486.40" shape="495.20,1000.00 495.20,513.60"/>
        <lane id="N_in_2" index="2" speed="13.89" length="486.40" shape="498.40,1000.00 498.40,513.60"/>
    </edge>
    <edge id="N_out" from="J0" to="N" priority="-1">
        <lane id="N_out_0" index="0" speed="13.89" length="486.40" shape="508.00,513.60 508.00,1000.00"/>
        <lane id="N_out_1" index="1" speed="13.89" length="486.40" shape="504.80,513.60 504.80,1000.00"/>
        <lane id="N_out_2" index="2" speed="13.89" length="486.40" shape="501.60,513.60 501.60,1000.00"/>
    </edge>
    <edge id="S_in" from="S" to="J0" priority="-1">
        <lane id="S_in_0" index="0" speed="13.89" length="486.40" shape="508.00,0.00 508.00,486.40"/>
        <lane id="S_in_1" index="1" speed="13.89" length="486.40" shape="504.80,0.00 504.80,486.40"/>
        <lane id="S_in_2" index="2" speed="13.89" length="486.40" shape="501.60,0.00 501.60,486.40"/>
    </edge>
    <edge id="S_out" from="J0" to="S" priority="-1">
        <lane id="S_out_0" index="0" speed="13.89" length="486.40" shape="492.00,486.40 492.00,0.00"/>
        <lane id="S_out_1" index="1" speed="13.89" length="486.40" shape="495.20,486.40 495.20,0.00"/>
        <lane id="S_out_2" index="2" speed="13.89" length="486.40" shape="498.40,486.40 498.40,0.00"/>
    </edge>
    <edge id="W_in" from="W" to="J0" priority="-1">
        <lane id="W_in_0" index="0" speed="13.89" length="486.40" shape="0.00,492.00 486.40,492.00"/>
        <lane id="W_in_1" index="1" speed="13.89" length="486.40" shape="0.00,495.20 486.40,495.20"/>
        <lane id="W_in_2" index="2" speed="13.89" length="486.40" shape="0.00,498.40 486.40,498.40"/>
    </edge>
    <edge id="W_out" from="J0" to="W" priority="-1">
        <lane id="W_out_0" index="0" speed="13.89" length="486.40" shape="486.40,508.00 0.00,508.00"/>
        <lane id="W_out_1" index="1" speed="13.89" length="486.40" shape="486.40,504.80 0.00,504.80"/>
        <lane id="W_out_2" index="2" speed="13.89" length="486.40" shape="486.40,501.60 0.00,501.60"/>
    </edge>

    <tlLogic id="J0" type="static" programID="0" offset="0">
        <phase duration="33" state="GGgGrrGGgGrr"/>
        <phase duration="3"  state="yygyrryygyrr"/>
        <phase duration="6"  state="rrGrrrrrGrrr"/>
        <phase duration="3"  state="rryrrrrryrrr"/>
        <phase duration="33" state="GrrGGgGrrGGg"/>
        <phase duration="3"  state="yrryygyrryyg"/>
        <phase duration="6"  state="rrrrrGrrrrrG"/>
        <phase duration="3"  state="rrrrryrrrrry"/>
    </tlLogic>

    <junction id="E" type="priority" x="1000.00" y="500.00" incLanes="E_out_0 E_out_1 E_out_2" intLanes=":E_0_0" shape="1000.00,500.00 1000.00,490.40 1000.00,500.00">
        <request index="0" response="0" foes="0" cont="0"/>
    </junction>
    <junction id="J0" type="traffic_light" x="500.00" y="500.00" incLanes="N_in_0 N_in_1 N_in_2 E_in_0 E_in_1 E_in_2 S_in_0 S_in_1 S_in_2 W_in_0 W_in_1 W_in_2" intLanes=":J0_0_0 :J0_1_0 :J0_12_0 :J0_3_0 :J0_4_0 :J0_13_0 :J0_6_0 :J0_7_0 :J0_14_0 :J0_9_0 :J0_10_0 :J0_15_0" shape="490.40,513.60 509.60,513.60 510.04,511.38 510.60,510.60 511.38,510.04 512.38,509.71 513.60,509.60 513.60,490.40 511.38,489.96 510.60,489.40 510.04,488.62 509.71,487.62 509.60,486.40 490.40,486.40 489.96,488.62 489.40,489.40 488.62,489.96 487.62,490.29 486.40,490.40 486.40,509.60 488.62,510.04 489.40,510.60 489.96,511.38 490.29,512.38">
        <request index="0"  response="000000000000" foes="000000000000" cont="0"/>
        <request index="1"  response="100000000000" foes="110100010000" cont="0"/>
        <request index="2"  response="100010100000" foes="100010110000" cont="1"/>
        <request index="3"  response="000000000000" foes="000000000000" cont="0"/>
        <request index="4"  response="000010000110" foes="100010000110" cont="0"/>
        <request index="5"  response="010110000100" foes="010110000100" cont="1"/>
        <request index="6"  response="000000000000" foes="000000000000" cont="0"/>
        <request index="7"  response="000000100000" foes="010000110100" cont="0"/>
        <request index="8"  response="100000100010" foes="110000100010" cont="1"/>
        <request index="9"  response="000000000000" foes="000000000000" cont="0"/>
        <request index="10" response="000110000010" foes="000110100010" cont="0"/>
        <request index="11" response="000100010110" foes="000100010110" cont="1"/>
    </junction>
    <junction id="N" type="priority" x="500.00" y="1000.00" incLanes="N_out_0 N_out_1 N_out_2" intLanes=":N_0_0" shape="500.00,1000.00 509.60,1000.00 500.00,1000.00">
        <request index="0" response="0" foes="0" cont="0"/>
    </junction>
    <junction id="S" type="priority" x="500.00" y="0.00" incLanes="S_out_0 S_out_1 S_out_2" intLanes=":S_0_0" shape="500.00,0.00 490.40,0.00 500.00,0.00">
        <request index="0" response="0" foes="0" cont="0"/>
    </junction>
    <junction id="W" type="priority" x="0.00" y="500.00" incLanes="W_out_0 W_out_1 W_out_2" intLanes=":W_0_0" shape="0.00,500.00 0.00,509.60 0.00,500.00">
        <request index="0" response="0" foes="0" cont="0"/>
    </junction>

    <junction id=":J0_12_0" type="internal" x="502.10" y="502.36" incLanes=":J0_2_0 S_in_1" intLanes=":J0_4_0 :J0_5_0 :J0_7_0 :J0_11_0"/>
    <junction id=":J0_13_0" type="internal" x="502.36" y="497.90" incLanes=":J0_5_0 W_in_1" intLanes=":J0_2_0 :J0_7_0 :J0_8_0 :J0_10_0"/>
    <junction id=":J0_14_0" type="internal" x="497.90" y="497.64" incLanes=":J0_8_0 N_in_1" intLanes=":J0_1_0 :J0_5_0 :J0_10_0 :J0_11_0"/>
    <junction id=":J0_15_0" type="internal" x="497.64" y="502.10" incLanes=":J0_11_0 E_in_1" intLanes=":J0_1_0 :J0_2_0 :J0_4_0 :J0_8_0"/>

    <connection from="E_in" to="N_out" fromLane="0" toLane="0" via=":J0_3_0" tl="J0" linkIndex="3" dir="r" state="O"/>
    <connection from="E_in" to="W_out" fromLane="1" toLane="1" via=":J0_4_0" tl="J0" linkIndex="4" dir="s" state="o"/>
    <connection from="E_in" to="S_out" fromLane="2" toLane="2" via=":J0_5_0" tl="J0" linkIndex="5" dir="l" state="o"/>
    <connection from="E_out" to="E_in" fromLane="2" toLane="2" via=":E_0_0" dir="t" state="M"/>
    <connection from="N_in" to="W_out" fromLane="0" toLane="0" via=":J0_0_0" tl="J0" linkIndex="0" dir="r" state="O"/>
    <connection from="N_in" to="S_out" fromLane="1" toLane="1" via=":J0_1_0" tl="J0" linkIndex="1" dir="s" state="O"/>
    <connection from="N_in" to="E_out" fromLane="2" toLane="2" via=":J0_2_0" tl="J0" linkIndex="2" dir="l" state="o"/>
    <connection from="N_out" to="N_in" fromLane="2" toLane="2" via=":N_0_0" dir="t" state="M"/>
    <connection from="S_in" to="E_out" fromLane="0" toLane="0" via=":J0_6_0" tl="J0" linkIndex="6" dir="r" state="O"/>
    <connection from="S_in" to="N_out" fromLane="1" toLane="1" via=":J0_7_0" tl="J0" linkIndex="7" dir="s" state="O"/>
    <connection from="S_in" to="W_out" fromLane="2" toLane="2" via=":J0_8_0" tl="J0" linkIndex="8" dir="l" state="o"/>
    <connection from="S_out" to="S_in" fromLane="2" toLane="2" via=":S_0_0" dir="t" state="M"/>
    <connection from="W_in" to="S_out" fromLane="0" toLane="0" via=":J0_9_0" tl="J0" linkIndex="9" dir="r" state="O"/>
    <connection from="W_in" to="E_out" fromLane="1" toLane="1" via=":J0_10_0" tl="J0" linkIndex="10" dir="s" state="o"/>
    <connection from="W_in" to="N_out" fromLane="2" toLane="2" via=":J0_11_0" tl="J0" linkIndex="11" dir="l" state="o"/>
    <connection from="W_out" to="W_in" fromLane="2" toLane="2" via=":W_0_0" dir="t" state="M"/>

    <connection from=":E_0" to="E_in" fromLane="0" toLane="2" dir="t" state="M"/>
    <connection from=":J0_0" to="W_out" fromLane="0" toLane="0" dir="r" state="M"/>
    <connection from=":J0_1" to="S_out" fromLane="0" toLane="1" dir="s" state="M"/>
    <connection from=":J0_2" to="E_out" fromLane="0" toLane="2" via=":J0_12_0" dir="l" state="m"/>
    <connection from=":J0_12" to="E_out" fromLane="0" toLane="2" dir="l" state="M"/>
    <connection from=":J0_3" to="N_out" fromLane="0" toLane="0" dir="r" state="M"/>
    <connection from=":J0_4" to="W_out" fromLane="0" toLane="1" dir="s" state="M"/>
    <connection from=":J0_5" to="S_out" fromLane="0" toLane="2" via=":J0_13_0" dir="l" state="m"/>
    <connection from=":J0_13" to="S_out" fromLane="0" toLane="2" dir="l" state="M"/>
    <connection from=":J0_6" to="E_out" fromLane="0" toLane="0" dir="r" state="M"/>
    <connection from=":J0_7" to="N_out" fromLane="0" toLane="1" dir="s" state="M"/>
    <connection from=":J0_8" to="W_out" fromLane="0" toLane="2" via=":J0_14_0" dir="l" state="m"/>
    <connection from=":J0_14" to="W_out" fromLane="0" toLane="2" dir="l" state="M"/>
    <connection from=":J0_9" to="S_out" fromLane="0" toLane="0" dir="r" state="M"/>
    <connection from=":J0_10" to="E_out" fromLane="0" toLane="1" dir="s" state="M"/>
    <connection from=":J0_11" to="N_out" fromLane="0" toLane="2" via=":J0_15_0" dir="l" state="m"/>
    <connection from=":J0_15" to="N_out" fromLane="0" toLane="2" dir="l" state="M"/>
    <connection from=":N_0" to="N_in" fromLane="0" toLane="2" dir="t" state="M"/>
    <connection from=":S_0" to="S_in" fromLane="0" toLane="2" dir="t" state="M"/>
    <connection from=":W_0" to="W_in" fromLane="0" toLane="2" dir="t" state="M"/>

</net>
